[General]
output-vector-file = ${resultdir}/${inifile}/${inifile}-${configname}-${runnumber}.vec
output-scalar-file = ${resultdir}/${inifile}/${inifile}-${configname}-${runnumber}.sca

sim-time-limit = 600s
repeat = 2
seed-set = ${repetition}


**.numClients = 1


**.rtt.result-recording-modes = +vector,-stats
**.pingApp[*].rtt*.vector-recording = true
**.pingApp[*].numLost*.scalar-recording = true

**.packetsPerSecondAt**.scalar-recording = true

**.packets.result-recording-modes = +count
**.packets*.scalar-recording = true

**.pingPacketHash.result-recording-modes = +vector,-stats
**.pingPacketHash*.vector-recording = true

**.avgQueueSizeAt**.scalar-recording = true
**.controllerInvolvementsFor**.scalar-recording = true

**.nodeInNumPaths**.scalar-recording = true
**.avgPathLength.scalar-recording = true
**.minPathLength.scalar-recording = true
**.maxPathLength.scalar-recording = true
**.numClients.scalar-recording = true
**.numPaths.scalar-recording = true











**.vector-recording = false
**.scalar-recording = false


**.spanningTree.NodeType = "openflow.nodes.Open_Flow_Domain"
**.spanningTree.startNode = 4
**.highlightActivePorts = true

# random ping application
**.client[*].numPingApps = 1
**.client[*].pingApp[*].typename = "PingAppRandom"
**.client[*].pingApp[*].startTime = uniform(100s,120s)



#openflow params
**.open_flow_switch.OF_Switch.connectAt = uniform(0s,1s)
**.open_flow_switch.etherMAC[*].promiscuous = true

# 404bytes see imix and buffer size of 1.5mb see hp switch 1500000/404
**.OF_Switch.bufferCapacity = 3712


**.OF_Switch.serviceTime = 0.000035s

#1800 00 requests per second on 8xcores 8xthreads and 32 switches (hotice2012-final)
**.open_flow_controller*.serviceTime = 0.000005556s * (${cstFaktor= 1200})

#hf 987 reads p s
**.hf_synchronizer*.serviceTime =  0.001013171s*(${synchronizerServiceTimeFactor= 1200 !cstFaktor})

**.open_flow_controller*.numControllerApps = 3
**.open_flow_controller*.controllerApps[0].typename = "LLDPForwarding"
**.open_flow_controller*.controllerApps[0].printMibGraph = false

#refer to beacon leraning switch code
**.open_flow_controller*.controllerApps[0].flowModIdleTimeOut = 5
**.open_flow_controller*.controllerApps[0].ignoreArpRequests = true

**.open_flow_controller*.controllerApps[1].typename = "HF_LLDPAgent"
**.open_flow_controller*.controllerApps[1].flowModIdleTimeOut = 140
**.open_flow_controller*.controllerApps[1].printMibGraph = true

**.open_flow_controller*.controllerApps[2].typename = "HF_ARPResponder"

**.open_flow_controller*.numTcpControllerApps = 1
**.open_flow_controller*.tcpControllerApps[0].typename = "HyperFlowAgent"
**.open_flow_controller*.tcpControllerApps[0].connectAddressHyperFlowSynchronizer = "hf_synchronizer"
**.open_flow_controller*.tcpControllerApps[0].checkSyncEvery=250ms
**.open_flow_controller*.tcpControllerApps[0].serviceTime=0.000005556s * (${hfFaktor= 1200 !cstFaktor}) 



# NIC configuration
**.ppp[*].queue.frameCapacity = 10  # in routers
**.open_flow_switch*.tcp.mss = 800


#linux mint 15 std value
**.arp.cacheTimeout = 60s
**.client[*].pingApp[*].sendInterval = 0.280s
network = openflow.networks.Scenario_Janetbackbone
[Config cfg1]
**.placementID = 1
**.numControllers = 2
**.ofs_1.open_flow_switch*.OF_Switch.connectAddress = "open_flow_controller1"
**.ofs_2.open_flow_switch*.OF_Switch.connectAddress = "open_flow_controller1"
**.ofs_3.open_flow_switch*.OF_Switch.connectAddress = "open_flow_controller1"
**.ofs_4.open_flow_switch*.OF_Switch.connectAddress = "open_flow_controller1"
**.ofs_5.open_flow_switch*.OF_Switch.connectAddress = "open_flow_controller2"
**.ofs_6.open_flow_switch*.OF_Switch.connectAddress = "open_flow_controller2"
**.ofs_7.open_flow_switch*.OF_Switch.connectAddress = "open_flow_controller2"
**.ofs_8.open_flow_switch*.OF_Switch.connectAddress = "open_flow_controller2"
**.ofs_9.open_flow_switch*.OF_Switch.connectAddress = "open_flow_controller2"
**.ofs_10.open_flow_switch*.OF_Switch.connectAddress = "open_flow_controller2"
**.ofs_11.open_flow_switch*.OF_Switch.connectAddress = "open_flow_controller1"
**.ofs_12.open_flow_switch*.OF_Switch.connectAddress = "open_flow_controller2"
**.ofs_13.open_flow_switch*.OF_Switch.connectAddress = "open_flow_controller1"
**.ofs_14.open_flow_switch*.OF_Switch.connectAddress = "open_flow_controller1"
**.ofs_15.open_flow_switch*.OF_Switch.connectAddress = "open_flow_controller2"
**.ofs_16.open_flow_switch*.OF_Switch.connectAddress = "open_flow_controller2"
**.ofs_17.open_flow_switch*.OF_Switch.connectAddress = "open_flow_controller2"
**.ofs_18.open_flow_switch*.OF_Switch.connectAddress = "open_flow_controller1"
**.ofs_19.open_flow_switch*.OF_Switch.connectAddress = "open_flow_controller1"
**.ofs_20.open_flow_switch*.OF_Switch.connectAddress = "open_flow_controller1"
**.ofs_21.open_flow_switch*.OF_Switch.connectAddress = "open_flow_controller1"
**.ofs_22.open_flow_switch*.OF_Switch.connectAddress = "open_flow_controller2"
**.ofs_23.open_flow_switch*.OF_Switch.connectAddress = "open_flow_controller2"
**.ofs_24.open_flow_switch*.OF_Switch.connectAddress = "open_flow_controller2"
**.ofs_25.open_flow_switch*.OF_Switch.connectAddress = "open_flow_controller1"
**.ofs_26.open_flow_switch*.OF_Switch.connectAddress = "open_flow_controller2"
**.ofs_27.open_flow_switch*.OF_Switch.connectAddress = "open_flow_controller2"
**.ofs_28.open_flow_switch*.OF_Switch.connectAddress = "open_flow_controller1"
[Config cfg2]
**.placementID = 2
**.numControllers = 2
**.ofs_1.open_flow_switch*.OF_Switch.connectAddress = "open_flow_controller1"
**.ofs_2.open_flow_switch*.OF_Switch.connectAddress = "open_flow_controller2"
**.ofs_3.open_flow_switch*.OF_Switch.connectAddress = "open_flow_controller2"
**.ofs_4.open_flow_switch*.OF_Switch.connectAddress = "open_flow_controller2"
**.ofs_5.open_flow_switch*.OF_Switch.connectAddress = "open_flow_controller1"
**.ofs_6.open_flow_switch*.OF_Switch.connectAddress = "open_flow_controller1"
**.ofs_7.open_flow_switch*.OF_Switch.connectAddress = "open_flow_controller1"
**.ofs_8.open_flow_switch*.OF_Switch.connectAddress = "open_flow_controller1"
**.ofs_9.open_flow_switch*.OF_Switch.connectAddress = "open_flow_controller1"
**.ofs_10.open_flow_switch*.OF_Switch.connectAddress = "open_flow_controller2"
**.ofs_11.open_flow_switch*.OF_Switch.connectAddress = "open_flow_controller2"
**.ofs_12.open_flow_switch*.OF_Switch.connectAddress = "open_flow_controller2"
**.ofs_13.open_flow_switch*.OF_Switch.connectAddress = "open_flow_controller2"
**.ofs_14.open_flow_switch*.OF_Switch.connectAddress = "open_flow_controller2"
**.ofs_15.open_flow_switch*.OF_Switch.connectAddress = "open_flow_controller1"
**.ofs_16.open_flow_switch*.OF_Switch.connectAddress = "open_flow_controller1"
**.ofs_17.open_flow_switch*.OF_Switch.connectAddress = "open_flow_controller1"
**.ofs_18.open_flow_switch*.OF_Switch.connectAddress = "open_flow_controller2"
**.ofs_19.open_flow_switch*.OF_Switch.connectAddress = "open_flow_controller2"
**.ofs_20.open_flow_switch*.OF_Switch.connectAddress = "open_flow_controller2"
**.ofs_21.open_flow_switch*.OF_Switch.connectAddress = "open_flow_controller2"
**.ofs_22.open_flow_switch*.OF_Switch.connectAddress = "open_flow_controller2"
**.ofs_23.open_flow_switch*.OF_Switch.connectAddress = "open_flow_controller2"
**.ofs_24.open_flow_switch*.OF_Switch.connectAddress = "open_flow_controller2"
**.ofs_25.open_flow_switch*.OF_Switch.connectAddress = "open_flow_controller2"
**.ofs_26.open_flow_switch*.OF_Switch.connectAddress = "open_flow_controller2"
**.ofs_27.open_flow_switch*.OF_Switch.connectAddress = "open_flow_controller2"
**.ofs_28.open_flow_switch*.OF_Switch.connectAddress = "open_flow_controller2"
[Config cfg3]
**.placementID = 3
**.numControllers = 2
**.ofs_1.open_flow_switch*.OF_Switch.connectAddress = "open_flow_controller1"
**.ofs_2.open_flow_switch*.OF_Switch.connectAddress = "open_flow_controller1"
**.ofs_3.open_flow_switch*.OF_Switch.connectAddress = "open_flow_controller1"
**.ofs_4.open_flow_switch*.OF_Switch.connectAddress = "open_flow_controller1"
**.ofs_5.open_flow_switch*.OF_Switch.connectAddress = "open_flow_controller1"
**.ofs_6.open_flow_switch*.OF_Switch.connectAddress = "open_flow_controller1"
**.ofs_7.open_flow_switch*.OF_Switch.connectAddress = "open_flow_controller1"
**.ofs_8.open_flow_switch*.OF_Switch.connectAddress = "open_flow_controller1"
**.ofs_9.open_flow_switch*.OF_Switch.connectAddress = "open_flow_controller1"
**.ofs_10.open_flow_switch*.OF_Switch.connectAddress = "open_flow_controller2"
**.ofs_11.open_flow_switch*.OF_Switch.connectAddress = "open_flow_controller1"
**.ofs_12.open_flow_switch*.OF_Switch.connectAddress = "open_flow_controller2"
**.ofs_13.open_flow_switch*.OF_Switch.connectAddress = "open_flow_controller1"
**.ofs_14.open_flow_switch*.OF_Switch.connectAddress = "open_flow_controller2"
**.ofs_15.open_flow_switch*.OF_Switch.connectAddress = "open_flow_controller1"
**.ofs_16.open_flow_switch*.OF_Switch.connectAddress = "open_flow_controller1"
**.ofs_17.open_flow_switch*.OF_Switch.connectAddress = "open_flow_controller1"
**.ofs_18.open_flow_switch*.OF_Switch.connectAddress = "open_flow_controller1"
**.ofs_19.open_flow_switch*.OF_Switch.connectAddress = "open_flow_controller2"
**.ofs_20.open_flow_switch*.OF_Switch.connectAddress = "open_flow_controller2"
**.ofs_21.open_flow_switch*.OF_Switch.connectAddress = "open_flow_controller2"
**.ofs_22.open_flow_switch*.OF_Switch.connectAddress = "open_flow_controller2"
**.ofs_23.open_flow_switch*.OF_Switch.connectAddress = "open_flow_controller2"
**.ofs_24.open_flow_switch*.OF_Switch.connectAddress = "open_flow_controller2"
**.ofs_25.open_flow_switch*.OF_Switch.connectAddress = "open_flow_controller2"
**.ofs_26.open_flow_switch*.OF_Switch.connectAddress = "open_flow_controller2"
**.ofs_27.open_flow_switch*.OF_Switch.connectAddress = "open_flow_controller2"
**.ofs_28.open_flow_switch*.OF_Switch.connectAddress = "open_flow_controller1"
[Config cfg4]
**.placementID = 4
**.numControllers = 2
**.ofs_1.open_flow_switch*.OF_Switch.connectAddress = "open_flow_controller1"
**.ofs_2.open_flow_switch*.OF_Switch.connectAddress = "open_flow_controller1"
**.ofs_3.open_flow_switch*.OF_Switch.connectAddress = "open_flow_controller1"
**.ofs_4.open_flow_switch*.OF_Switch.connectAddress = "open_flow_controller1"
**.ofs_5.open_flow_switch*.OF_Switch.connectAddress = "open_flow_controller1"
**.ofs_6.open_flow_switch*.OF_Switch.connectAddress = "open_flow_controller1"
**.ofs_7.open_flow_switch*.OF_Switch.connectAddress = "open_flow_controller1"
**.ofs_8.open_flow_switch*.OF_Switch.connectAddress = "open_flow_controller1"
**.ofs_9.open_flow_switch*.OF_Switch.connectAddress = "open_flow_controller1"
**.ofs_10.open_flow_switch*.OF_Switch.connectAddress = "open_flow_controller2"
**.ofs_11.open_flow_switch*.OF_Switch.connectAddress = "open_flow_controller1"
**.ofs_12.open_flow_switch*.OF_Switch.connectAddress = "open_flow_controller2"
**.ofs_13.open_flow_switch*.OF_Switch.connectAddress = "open_flow_controller1"
**.ofs_14.open_flow_switch*.OF_Switch.connectAddress = "open_flow_controller2"
**.ofs_15.open_flow_switch*.OF_Switch.connectAddress = "open_flow_controller1"
**.ofs_16.open_flow_switch*.OF_Switch.connectAddress = "open_flow_controller1"
**.ofs_17.open_flow_switch*.OF_Switch.connectAddress = "open_flow_controller1"
**.ofs_18.open_flow_switch*.OF_Switch.connectAddress = "open_flow_controller1"
**.ofs_19.open_flow_switch*.OF_Switch.connectAddress = "open_flow_controller2"
**.ofs_20.open_flow_switch*.OF_Switch.connectAddress = "open_flow_controller2"
**.ofs_21.open_flow_switch*.OF_Switch.connectAddress = "open_flow_controller2"
**.ofs_22.open_flow_switch*.OF_Switch.connectAddress = "open_flow_controller2"
**.ofs_23.open_flow_switch*.OF_Switch.connectAddress = "open_flow_controller2"
**.ofs_24.open_flow_switch*.OF_Switch.connectAddress = "open_flow_controller2"
**.ofs_25.open_flow_switch*.OF_Switch.connectAddress = "open_flow_controller2"
**.ofs_26.open_flow_switch*.OF_Switch.connectAddress = "open_flow_controller2"
**.ofs_27.open_flow_switch*.OF_Switch.connectAddress = "open_flow_controller2"
**.ofs_28.open_flow_switch*.OF_Switch.connectAddress = "open_flow_controller1"
[Config cfg5]
**.placementID = 5
**.numControllers = 2
**.ofs_1.open_flow_switch*.OF_Switch.connectAddress = "open_flow_controller2"
**.ofs_2.open_flow_switch*.OF_Switch.connectAddress = "open_flow_controller2"
**.ofs_3.open_flow_switch*.OF_Switch.connectAddress = "open_flow_controller2"
**.ofs_4.open_flow_switch*.OF_Switch.connectAddress = "open_flow_controller2"
**.ofs_5.open_flow_switch*.OF_Switch.connectAddress = "open_flow_controller1"
**.ofs_6.open_flow_switch*.OF_Switch.connectAddress = "open_flow_controller1"
**.ofs_7.open_flow_switch*.OF_Switch.connectAddress = "open_flow_controller1"
**.ofs_8.open_flow_switch*.OF_Switch.connectAddress = "open_flow_controller1"
**.ofs_9.open_flow_switch*.OF_Switch.connectAddress = "open_flow_controller1"
**.ofs_10.open_flow_switch*.OF_Switch.connectAddress = "open_flow_controller1"
**.ofs_11.open_flow_switch*.OF_Switch.connectAddress = "open_flow_controller2"
**.ofs_12.open_flow_switch*.OF_Switch.connectAddress = "open_flow_controller1"
**.ofs_13.open_flow_switch*.OF_Switch.connectAddress = "open_flow_controller2"
**.ofs_14.open_flow_switch*.OF_Switch.connectAddress = "open_flow_controller2"
**.ofs_15.open_flow_switch*.OF_Switch.connectAddress = "open_flow_controller1"
**.ofs_16.open_flow_switch*.OF_Switch.connectAddress = "open_flow_controller1"
**.ofs_17.open_flow_switch*.OF_Switch.connectAddress = "open_flow_controller1"
**.ofs_18.open_flow_switch*.OF_Switch.connectAddress = "open_flow_controller2"
**.ofs_19.open_flow_switch*.OF_Switch.connectAddress = "open_flow_controller2"
**.ofs_20.open_flow_switch*.OF_Switch.connectAddress = "open_flow_controller2"
**.ofs_21.open_flow_switch*.OF_Switch.connectAddress = "open_flow_controller2"
**.ofs_22.open_flow_switch*.OF_Switch.connectAddress = "open_flow_controller1"
**.ofs_23.open_flow_switch*.OF_Switch.connectAddress = "open_flow_controller1"
**.ofs_24.open_flow_switch*.OF_Switch.connectAddress = "open_flow_controller1"
**.ofs_25.open_flow_switch*.OF_Switch.connectAddress = "open_flow_controller2"
**.ofs_26.open_flow_switch*.OF_Switch.connectAddress = "open_flow_controller1"
**.ofs_27.open_flow_switch*.OF_Switch.connectAddress = "open_flow_controller1"
**.ofs_28.open_flow_switch*.OF_Switch.connectAddress = "open_flow_controller2"
[Config cfg6]
**.placementID = 6
**.numControllers = 2
**.ofs_1.open_flow_switch*.OF_Switch.connectAddress = "open_flow_controller1"
**.ofs_2.open_flow_switch*.OF_Switch.connectAddress = "open_flow_controller1"
**.ofs_3.open_flow_switch*.OF_Switch.connectAddress = "open_flow_controller2"
**.ofs_4.open_flow_switch*.OF_Switch.connectAddress = "open_flow_controller1"
**.ofs_5.open_flow_switch*.OF_Switch.connectAddress = "open_flow_controller1"
**.ofs_6.open_flow_switch*.OF_Switch.connectAddress = "open_flow_controller1"
**.ofs_7.open_flow_switch*.OF_Switch.connectAddress = "open_flow_controller1"
**.ofs_8.open_flow_switch*.OF_Switch.connectAddress = "open_flow_controller1"
**.ofs_9.open_flow_switch*.OF_Switch.connectAddress = "open_flow_controller2"
**.ofs_10.open_flow_switch*.OF_Switch.connectAddress = "open_flow_controller2"
**.ofs_11.open_flow_switch*.OF_Switch.connectAddress = "open_flow_controller1"
**.ofs_12.open_flow_switch*.OF_Switch.connectAddress = "open_flow_controller2"
**.ofs_13.open_flow_switch*.OF_Switch.connectAddress = "open_flow_controller2"
**.ofs_14.open_flow_switch*.OF_Switch.connectAddress = "open_flow_controller2"
**.ofs_15.open_flow_switch*.OF_Switch.connectAddress = "open_flow_controller1"
**.ofs_16.open_flow_switch*.OF_Switch.connectAddress = "open_flow_controller1"
**.ofs_17.open_flow_switch*.OF_Switch.connectAddress = "open_flow_controller1"
**.ofs_18.open_flow_switch*.OF_Switch.connectAddress = "open_flow_controller1"
**.ofs_19.open_flow_switch*.OF_Switch.connectAddress = "open_flow_controller2"
**.ofs_20.open_flow_switch*.OF_Switch.connectAddress = "open_flow_controller2"
**.ofs_21.open_flow_switch*.OF_Switch.connectAddress = "open_flow_controller2"
**.ofs_22.open_flow_switch*.OF_Switch.connectAddress = "open_flow_controller2"
**.ofs_23.open_flow_switch*.OF_Switch.connectAddress = "open_flow_controller2"
**.ofs_24.open_flow_switch*.OF_Switch.connectAddress = "open_flow_controller2"
**.ofs_25.open_flow_switch*.OF_Switch.connectAddress = "open_flow_controller2"
**.ofs_26.open_flow_switch*.OF_Switch.connectAddress = "open_flow_controller2"
**.ofs_27.open_flow_switch*.OF_Switch.connectAddress = "open_flow_controller2"
**.ofs_28.open_flow_switch*.OF_Switch.connectAddress = "open_flow_controller2"
[Config cfg7]
**.placementID = 7
**.numControllers = 2
**.ofs_1.open_flow_switch*.OF_Switch.connectAddress = "open_flow_controller1"
**.ofs_2.open_flow_switch*.OF_Switch.connectAddress = "open_flow_controller1"
**.ofs_3.open_flow_switch*.OF_Switch.connectAddress = "open_flow_controller2"
**.ofs_4.open_flow_switch*.OF_Switch.connectAddress = "open_flow_controller1"
**.ofs_5.open_flow_switch*.OF_Switch.connectAddress = "open_flow_controller1"
**.ofs_6.open_flow_switch*.OF_Switch.connectAddress = "open_flow_controller1"
**.ofs_7.open_flow_switch*.OF_Switch.connectAddress = "open_flow_controller1"
**.ofs_8.open_flow_switch*.OF_Switch.connectAddress = "open_flow_controller1"
**.ofs_9.open_flow_switch*.OF_Switch.connectAddress = "open_flow_controller1"
**.ofs_10.open_flow_switch*.OF_Switch.connectAddress = "open_flow_controller2"
**.ofs_11.open_flow_switch*.OF_Switch.connectAddress = "open_flow_controller1"
**.ofs_12.open_flow_switch*.OF_Switch.connectAddress = "open_flow_controller2"
**.ofs_13.open_flow_switch*.OF_Switch.connectAddress = "open_flow_controller2"
**.ofs_14.open_flow_switch*.OF_Switch.connectAddress = "open_flow_controller2"
**.ofs_15.open_flow_switch*.OF_Switch.connectAddress = "open_flow_controller1"
**.ofs_16.open_flow_switch*.OF_Switch.connectAddress = "open_flow_controller1"
**.ofs_17.open_flow_switch*.OF_Switch.connectAddress = "open_flow_controller1"
**.ofs_18.open_flow_switch*.OF_Switch.connectAddress = "open_flow_controller1"
**.ofs_19.open_flow_switch*.OF_Switch.connectAddress = "open_flow_controller2"
**.ofs_20.open_flow_switch*.OF_Switch.connectAddress = "open_flow_controller2"
**.ofs_21.open_flow_switch*.OF_Switch.connectAddress = "open_flow_controller2"
**.ofs_22.open_flow_switch*.OF_Switch.connectAddress = "open_flow_controller2"
**.ofs_23.open_flow_switch*.OF_Switch.connectAddress = "open_flow_controller2"
**.ofs_24.open_flow_switch*.OF_Switch.connectAddress = "open_flow_controller2"
**.ofs_25.open_flow_switch*.OF_Switch.connectAddress = "open_flow_controller2"
**.ofs_26.open_flow_switch*.OF_Switch.connectAddress = "open_flow_controller2"
**.ofs_27.open_flow_switch*.OF_Switch.connectAddress = "open_flow_controller2"
**.ofs_28.open_flow_switch*.OF_Switch.connectAddress = "open_flow_controller2"
[Config cfg8]
**.placementID = 8
**.numControllers = 2
**.ofs_1.open_flow_switch*.OF_Switch.connectAddress = "open_flow_controller1"
**.ofs_2.open_flow_switch*.OF_Switch.connectAddress = "open_flow_controller1"
**.ofs_3.open_flow_switch*.OF_Switch.connectAddress = "open_flow_controller2"
**.ofs_4.open_flow_switch*.OF_Switch.connectAddress = "open_flow_controller1"
**.ofs_5.open_flow_switch*.OF_Switch.connectAddress = "open_flow_controller1"
**.ofs_6.open_flow_switch*.OF_Switch.connectAddress = "open_flow_controller1"
**.ofs_7.open_flow_switch*.OF_Switch.connectAddress = "open_flow_controller1"
**.ofs_8.open_flow_switch*.OF_Switch.connectAddress = "open_flow_controller1"
**.ofs_9.open_flow_switch*.OF_Switch.connectAddress = "open_flow_controller1"
**.ofs_10.open_flow_switch*.OF_Switch.connectAddress = "open_flow_controller2"
**.ofs_11.open_flow_switch*.OF_Switch.connectAddress = "open_flow_controller1"
**.ofs_12.open_flow_switch*.OF_Switch.connectAddress = "open_flow_controller1"
**.ofs_13.open_flow_switch*.OF_Switch.connectAddress = "open_flow_controller2"
**.ofs_14.open_flow_switch*.OF_Switch.connectAddress = "open_flow_controller2"
**.ofs_15.open_flow_switch*.OF_Switch.connectAddress = "open_flow_controller1"
**.ofs_16.open_flow_switch*.OF_Switch.connectAddress = "open_flow_controller1"
**.ofs_17.open_flow_switch*.OF_Switch.connectAddress = "open_flow_controller1"
**.ofs_18.open_flow_switch*.OF_Switch.connectAddress = "open_flow_controller1"
**.ofs_19.open_flow_switch*.OF_Switch.connectAddress = "open_flow_controller2"
**.ofs_20.open_flow_switch*.OF_Switch.connectAddress = "open_flow_controller2"
**.ofs_21.open_flow_switch*.OF_Switch.connectAddress = "open_flow_controller2"
**.ofs_22.open_flow_switch*.OF_Switch.connectAddress = "open_flow_controller2"
**.ofs_23.open_flow_switch*.OF_Switch.connectAddress = "open_flow_controller2"
**.ofs_24.open_flow_switch*.OF_Switch.connectAddress = "open_flow_controller2"
**.ofs_25.open_flow_switch*.OF_Switch.connectAddress = "open_flow_controller2"
**.ofs_26.open_flow_switch*.OF_Switch.connectAddress = "open_flow_controller2"
**.ofs_27.open_flow_switch*.OF_Switch.connectAddress = "open_flow_controller1"
**.ofs_28.open_flow_switch*.OF_Switch.connectAddress = "open_flow_controller2"
[Config cfg9]
**.placementID = 9
**.numControllers = 2
**.ofs_1.open_flow_switch*.OF_Switch.connectAddress = "open_flow_controller1"
**.ofs_2.open_flow_switch*.OF_Switch.connectAddress = "open_flow_controller1"
**.ofs_3.open_flow_switch*.OF_Switch.connectAddress = "open_flow_controller1"
**.ofs_4.open_flow_switch*.OF_Switch.connectAddress = "open_flow_controller1"
**.ofs_5.open_flow_switch*.OF_Switch.connectAddress = "open_flow_controller1"
**.ofs_6.open_flow_switch*.OF_Switch.connectAddress = "open_flow_controller1"
**.ofs_7.open_flow_switch*.OF_Switch.connectAddress = "open_flow_controller1"
**.ofs_8.open_flow_switch*.OF_Switch.connectAddress = "open_flow_controller1"
**.ofs_9.open_flow_switch*.OF_Switch.connectAddress = "open_flow_controller1"
**.ofs_10.open_flow_switch*.OF_Switch.connectAddress = "open_flow_controller1"
**.ofs_11.open_flow_switch*.OF_Switch.connectAddress = "open_flow_controller1"
**.ofs_12.open_flow_switch*.OF_Switch.connectAddress = "open_flow_controller1"
**.ofs_13.open_flow_switch*.OF_Switch.connectAddress = "open_flow_controller1"
**.ofs_14.open_flow_switch*.OF_Switch.connectAddress = "open_flow_controller1"
**.ofs_15.open_flow_switch*.OF_Switch.connectAddress = "open_flow_controller2"
**.ofs_16.open_flow_switch*.OF_Switch.connectAddress = "open_flow_controller1"
**.ofs_17.open_flow_switch*.OF_Switch.connectAddress = "open_flow_controller1"
**.ofs_18.open_flow_switch*.OF_Switch.connectAddress = "open_flow_controller1"
**.ofs_19.open_flow_switch*.OF_Switch.connectAddress = "open_flow_controller1"
**.ofs_20.open_flow_switch*.OF_Switch.connectAddress = "open_flow_controller1"
**.ofs_21.open_flow_switch*.OF_Switch.connectAddress = "open_flow_controller1"
**.ofs_22.open_flow_switch*.OF_Switch.connectAddress = "open_flow_controller1"
**.ofs_23.open_flow_switch*.OF_Switch.connectAddress = "open_flow_controller1"
**.ofs_24.open_flow_switch*.OF_Switch.connectAddress = "open_flow_controller1"
**.ofs_25.open_flow_switch*.OF_Switch.connectAddress = "open_flow_controller1"
**.ofs_26.open_flow_switch*.OF_Switch.connectAddress = "open_flow_controller1"
**.ofs_27.open_flow_switch*.OF_Switch.connectAddress = "open_flow_controller1"
**.ofs_28.open_flow_switch*.OF_Switch.connectAddress = "open_flow_controller1"
[Config cfg10]
**.placementID = 10
**.numControllers = 2
**.ofs_1.open_flow_switch*.OF_Switch.connectAddress = "open_flow_controller1"
**.ofs_2.open_flow_switch*.OF_Switch.connectAddress = "open_flow_controller1"
**.ofs_3.open_flow_switch*.OF_Switch.connectAddress = "open_flow_controller1"
**.ofs_4.open_flow_switch*.OF_Switch.connectAddress = "open_flow_controller1"
**.ofs_5.open_flow_switch*.OF_Switch.connectAddress = "open_flow_controller1"
**.ofs_6.open_flow_switch*.OF_Switch.connectAddress = "open_flow_controller1"
**.ofs_7.open_flow_switch*.OF_Switch.connectAddress = "open_flow_controller1"
**.ofs_8.open_flow_switch*.OF_Switch.connectAddress = "open_flow_controller1"
**.ofs_9.open_flow_switch*.OF_Switch.connectAddress = "open_flow_controller1"
**.ofs_10.open_flow_switch*.OF_Switch.connectAddress = "open_flow_controller2"
**.ofs_11.open_flow_switch*.OF_Switch.connectAddress = "open_flow_controller1"
**.ofs_12.open_flow_switch*.OF_Switch.connectAddress = "open_flow_controller1"
**.ofs_13.open_flow_switch*.OF_Switch.connectAddress = "open_flow_controller1"
**.ofs_14.open_flow_switch*.OF_Switch.connectAddress = "open_flow_controller2"
**.ofs_15.open_flow_switch*.OF_Switch.connectAddress = "open_flow_controller1"
**.ofs_16.open_flow_switch*.OF_Switch.connectAddress = "open_flow_controller1"
**.ofs_17.open_flow_switch*.OF_Switch.connectAddress = "open_flow_controller1"
**.ofs_18.open_flow_switch*.OF_Switch.connectAddress = "open_flow_controller1"
**.ofs_19.open_flow_switch*.OF_Switch.connectAddress = "open_flow_controller2"
**.ofs_20.open_flow_switch*.OF_Switch.connectAddress = "open_flow_controller2"
**.ofs_21.open_flow_switch*.OF_Switch.connectAddress = "open_flow_controller2"
**.ofs_22.open_flow_switch*.OF_Switch.connectAddress = "open_flow_controller2"
**.ofs_23.open_flow_switch*.OF_Switch.connectAddress = "open_flow_controller2"
**.ofs_24.open_flow_switch*.OF_Switch.connectAddress = "open_flow_controller2"
**.ofs_25.open_flow_switch*.OF_Switch.connectAddress = "open_flow_controller2"
**.ofs_26.open_flow_switch*.OF_Switch.connectAddress = "open_flow_controller2"
**.ofs_27.open_flow_switch*.OF_Switch.connectAddress = "open_flow_controller1"
**.ofs_28.open_flow_switch*.OF_Switch.connectAddress = "open_flow_controller2"
[Config cfg11]
**.placementID = 11
**.numControllers = 2
**.ofs_1.open_flow_switch*.OF_Switch.connectAddress = "open_flow_controller1"
**.ofs_2.open_flow_switch*.OF_Switch.connectAddress = "open_flow_controller1"
**.ofs_3.open_flow_switch*.OF_Switch.connectAddress = "open_flow_controller1"
**.ofs_4.open_flow_switch*.OF_Switch.connectAddress = "open_flow_controller1"
**.ofs_5.open_flow_switch*.OF_Switch.connectAddress = "open_flow_controller1"
**.ofs_6.open_flow_switch*.OF_Switch.connectAddress = "open_flow_controller1"
**.ofs_7.open_flow_switch*.OF_Switch.connectAddress = "open_flow_controller1"
**.ofs_8.open_flow_switch*.OF_Switch.connectAddress = "open_flow_controller1"
**.ofs_9.open_flow_switch*.OF_Switch.connectAddress = "open_flow_controller1"
**.ofs_10.open_flow_switch*.OF_Switch.connectAddress = "open_flow_controller2"
**.ofs_11.open_flow_switch*.OF_Switch.connectAddress = "open_flow_controller1"
**.ofs_12.open_flow_switch*.OF_Switch.connectAddress = "open_flow_controller1"
**.ofs_13.open_flow_switch*.OF_Switch.connectAddress = "open_flow_controller1"
**.ofs_14.open_flow_switch*.OF_Switch.connectAddress = "open_flow_controller2"
**.ofs_15.open_flow_switch*.OF_Switch.connectAddress = "open_flow_controller1"
**.ofs_16.open_flow_switch*.OF_Switch.connectAddress = "open_flow_controller1"
**.ofs_17.open_flow_switch*.OF_Switch.connectAddress = "open_flow_controller1"
**.ofs_18.open_flow_switch*.OF_Switch.connectAddress = "open_flow_controller1"
**.ofs_19.open_flow_switch*.OF_Switch.connectAddress = "open_flow_controller2"
**.ofs_20.open_flow_switch*.OF_Switch.connectAddress = "open_flow_controller2"
**.ofs_21.open_flow_switch*.OF_Switch.connectAddress = "open_flow_controller2"
**.ofs_22.open_flow_switch*.OF_Switch.connectAddress = "open_flow_controller2"
**.ofs_23.open_flow_switch*.OF_Switch.connectAddress = "open_flow_controller2"
**.ofs_24.open_flow_switch*.OF_Switch.connectAddress = "open_flow_controller2"
**.ofs_25.open_flow_switch*.OF_Switch.connectAddress = "open_flow_controller2"
**.ofs_26.open_flow_switch*.OF_Switch.connectAddress = "open_flow_controller2"
**.ofs_27.open_flow_switch*.OF_Switch.connectAddress = "open_flow_controller1"
**.ofs_28.open_flow_switch*.OF_Switch.connectAddress = "open_flow_controller1"
[Config cfg12]
**.placementID = 12
**.numControllers = 2
**.ofs_1.open_flow_switch*.OF_Switch.connectAddress = "open_flow_controller1"
**.ofs_2.open_flow_switch*.OF_Switch.connectAddress = "open_flow_controller1"
**.ofs_3.open_flow_switch*.OF_Switch.connectAddress = "open_flow_controller1"
**.ofs_4.open_flow_switch*.OF_Switch.connectAddress = "open_flow_controller1"
**.ofs_5.open_flow_switch*.OF_Switch.connectAddress = "open_flow_controller1"
**.ofs_6.open_flow_switch*.OF_Switch.connectAddress = "open_flow_controller1"
**.ofs_7.open_flow_switch*.OF_Switch.connectAddress = "open_flow_controller1"
**.ofs_8.open_flow_switch*.OF_Switch.connectAddress = "open_flow_controller1"
**.ofs_9.open_flow_switch*.OF_Switch.connectAddress = "open_flow_controller1"
**.ofs_10.open_flow_switch*.OF_Switch.connectAddress = "open_flow_controller2"
**.ofs_11.open_flow_switch*.OF_Switch.connectAddress = "open_flow_controller1"
**.ofs_12.open_flow_switch*.OF_Switch.connectAddress = "open_flow_controller1"
**.ofs_13.open_flow_switch*.OF_Switch.connectAddress = "open_flow_controller1"
**.ofs_14.open_flow_switch*.OF_Switch.connectAddress = "open_flow_controller2"
**.ofs_15.open_flow_switch*.OF_Switch.connectAddress = "open_flow_controller1"
**.ofs_16.open_flow_switch*.OF_Switch.connectAddress = "open_flow_controller1"
**.ofs_17.open_flow_switch*.OF_Switch.connectAddress = "open_flow_controller1"
**.ofs_18.open_flow_switch*.OF_Switch.connectAddress = "open_flow_controller1"
**.ofs_19.open_flow_switch*.OF_Switch.connectAddress = "open_flow_controller2"
**.ofs_20.open_flow_switch*.OF_Switch.connectAddress = "open_flow_controller2"
**.ofs_21.open_flow_switch*.OF_Switch.connectAddress = "open_flow_controller2"
**.ofs_22.open_flow_switch*.OF_Switch.connectAddress = "open_flow_controller2"
**.ofs_23.open_flow_switch*.OF_Switch.connectAddress = "open_flow_controller1"
**.ofs_24.open_flow_switch*.OF_Switch.connectAddress = "open_flow_controller2"